66
MaEn-stil-pes-0.out	Energy: -1058630.8496721
C          3.85926        1.11946        0.97099
C          3.11535        0.09468        1.52139
C          1.69277        0.09952        1.42094
C          1.10240        1.17679        0.75342
C          1.83994        2.21450        0.17638
C          3.21914        2.16269        0.28120
H          4.93977        1.13204        1.00359
C          0.82790       -0.95963        1.90360
H          1.30774        3.00576       -0.33398
C         -1.10539        0.36308        1.11010
C         -0.61219       -0.72148        1.75230
O         -1.37004       -1.71186        2.26696
O          1.16186       -2.02830        2.42719
O         -0.23212        1.28718        0.60751
C         -2.50276        0.71754        0.84252
C         -3.56525       -0.04888        1.32790
C         -2.80473        1.84502        0.05968
C         -4.88452        0.28493        1.03851
H         -3.36468       -0.92556        1.92882
C         -4.11125        2.17983       -0.23588
H         -1.99998        2.45811       -0.32824
C         -5.16513        1.39601        0.24565
H         -5.67772       -0.34216        1.42850
H         -4.34431        3.04599       -0.84641
O          3.65530       -0.94657        2.17097
C          5.05689       -0.98057        2.32936
H          5.26744       -1.89678        2.88129
H          5.41317       -0.11634        2.90385
H          5.56476       -1.01014        1.35840
O          4.05469        3.07599       -0.25700
C          3.49181        4.11433       -1.02974
H          4.33156        4.70731       -1.39303
H          2.83196        4.75053       -0.42729
H          2.93061        3.71321       -1.88307
O         -6.41137        1.79601       -0.11285
C         -7.50345        1.01995        0.32440
H         -7.57088        0.99868        1.41970
H         -7.44131       -0.00943       -0.05235
H         -8.39557        1.49873       -0.08120
H         -0.69175       -2.33716        2.60944
C          2.44381       -1.22349       -1.56089
C         -1.44387       -1.38078       -1.63941
C          1.04002       -1.61564       -1.37004
C         -0.04663       -0.95152       -1.78865
C          2.83921       -0.07987       -2.26932
C         -1.83055       -2.48048       -0.86161
C          3.44510       -2.04203       -1.02214
C         -2.44399       -0.65294       -2.29555
C          4.18259        0.23096       -2.43057
C         -3.16590       -2.84373       -0.76088
C          4.79108       -1.73922       -1.19429
C         -3.78213       -1.01414       -2.19582
C          5.16692       -0.59810       -1.89645
C         -4.14736       -2.11659       -1.43126
H          0.90997       -2.55727       -0.83947
H          0.07971       -0.00814       -2.31820
H          2.09017        0.57813       -2.69891
H         -1.08894       -3.03972       -0.30049
H          3.15896       -2.92083       -0.45056
H         -2.16590        0.21708       -2.88538
H          4.46511        1.12705       -2.97545
H         -3.44359       -3.69212       -0.14249
H          5.54752       -2.39973       -0.77927
H         -4.53943       -0.42390       -2.70281
H          6.21716       -0.35658       -2.03088
H         -5.19258       -2.39766       -1.34140
